[General]
network = nfv.Nfvservicechain
sim-time-limit = 10s
