[General]
network = omnet_nfv.Nfvservicechain
sim-time-limit = 10s
