[General]
network = omnet_nfv.Nfvservicechain
sim-time-limit = 60s
# Number of clients and NFVI nodes

Nfvservicechain.numClients = 4
Nfvservicechain.numNfviNodes = 2